/*--------------------------------*- C++ -*----------------------------------*\
| =========                 |                                                 |
| \\      /  F ield         | OpenFOAM: The Open Source CFD Toolbox           |
|  \\    /   O peration     | Version:  2.1.1                                 |
|   \\  /    A nd           | Web:      www.OpenFOAM.org                      |
|    \\/     M anipulation  |                                                 |
\*---------------------------------------------------------------------------*/
FoamFile
{
    version     2.0;
    format      ascii;
    class       dictionary;
    location    "system";
    object      sampleDict;
}
// * * * * * * * * * * * * * * * * * * * * * * * * * * * * * * * * * * * * * //
type                    sets;
libs                    (sampling);
writeControl            writeTime;
writeInterval           1e-6;
interpolationScheme     cellPointFace;
setFormat               raw;
sets
(
 	sample
        {
        	type            face;
                axis            z;
                start           (-0.2 -0.0001 0.374);
                end             (-0.2 -0.0001 0.9);
                nPoints         50;
                interpolate     true;
        }
);

fields          (U rho p T thermo:mu)
;

// ************************************************************************* //
