/*--------------------------------*- C++ -*----------------------------------*\
| =========                 |                                                 |
| \\      /  F ield         | OpenFOAM: The Open Source CFD Toolbox           |
|  \\    /   O peration     | Version:  2.1.1                                 |
|   \\  /    A nd           | Web:      www.OpenFOAM.org                      |
|    \\/     M anipulation  |                                                 |
\*---------------------------------------------------------------------------*/
FoamFile
{
    version     2.0;
    format      ascii;
    class       volVectorField;
    object      U;
}
// * * * * * * * * * * * * * * * * * * * * * * * * * * * * * * * * * * * * * //

dimensions      [0 1 -1 0 0 0 0];

internalField   uniform ( 0.8613 0.046 0 ) ;

boundaryField
{

	side1
    	{
        	type            empty;
    	}
    	
	side2
    	{
        	type            empty;
    	}
   	
	outFlow
    	{
        	type            zeroGradient;
    	}
   	
	airfoil
    	{
        	type            noSlip;
    	}
   	
	inFlow
    	{
        	type            inletOutlet;
		inletValue	uniform ( 0.8613 0.046 0 );
    	}


}


// ************************************************************************* //
